230
mol output final
   P    49.157576     9.410081    -3.503163
   P    49.473403     9.842635    -3.357150
   P    48.647231     9.782879    -3.820291
   P    48.995900     8.851996    -3.552173
   P    49.184638     9.073783    -3.027589
   P    49.157482     9.410106    -3.503140
   P    15.383973    15.006387     4.543489
   P    15.902170    14.840222     4.433806
   P    15.436228    14.982358     5.248253
   P    14.839239    15.183131     4.433824
   P    15.075401    14.713296     4.144891
   P    15.383938    15.006326     4.543561
   P    -5.518147    -2.206776   -11.578649
   P    -5.820789    -2.557420   -11.884634
   P    -5.386788    -1.739558   -12.092898
   P    -5.250743    -1.996259   -11.105175
   P    -5.191084    -2.572038   -11.263033
   P    -5.518067    -2.206753   -11.578705
   P   -37.229419     4.561629   -11.955390
   P   -36.790472     4.231364   -11.875262
   P   -37.045508     5.059418   -11.488074
   P   -37.734777     4.741769   -12.183781
   P   -37.665678     4.176703   -11.994241
   P   -37.229450     4.561656   -11.955299
   P   -51.885570    13.055464    -7.411666
   P   -52.412813    13.017021    -7.581100
   P   -52.021404    13.062685    -6.717766
   P   -51.305428    13.092588    -7.457011
   P   -51.663947    13.439637    -7.790208
   P   -51.885569    13.055534    -7.411595
   P    54.491537    -6.676608   -13.711612
   P    54.305390    -6.595865   -13.194891
   P    53.963178    -7.094746   -13.926081
   P    54.847438    -6.627680   -14.170894
   P    55.063396    -6.750241   -13.624688
   P    54.491527    -6.676705   -13.711630
   P    27.792997    14.997944    -0.945504
   P    27.795949    14.682470    -0.488736
   P    28.347903    15.400518    -0.772257
   P    27.615482    15.193161    -1.465484
   P    27.223280    15.095787    -1.021980
   P    27.793009    14.998039    -0.945473
   P   -21.572802    15.340779    -1.234489
   P   -21.814125    14.879318    -1.426809
   P   -21.942914    15.384059    -0.633537
   P   -21.210629    15.797705    -1.227386
   P   -21.533174    15.667024    -1.716147
   P   -21.572876    15.340838    -1.234456
   P   -43.337294     7.205004    -9.315611
   P   -43.100358     7.571025    -9.659209
   P   -42.917256     6.658539    -9.473544
   P   -43.710955     7.003556    -8.915866
   P   -43.904334     7.320519    -9.387181
   P   -43.337305     7.204920    -9.315663
   P   -52.414362    15.139680     5.324747
   P   -52.404931    15.338483     5.842974
   P   -53.091063    15.293366     5.188896
   P   -52.211375    14.888540     4.839232
   P   -52.108685    14.646031     5.378346
   P   -52.414446    15.139627     5.324740
   N    -7.400000     0.000000     0.000000
   N    -7.095000    -1.005100     0.508000
   N    -7.400000     0.000000     0.000100
   N   -48.550000     0.000000     0.000000
   N   -48.245000    -1.005100     0.508000
   N   -48.550000     0.000000     0.000100
   N    30.620000     0.000000     0.000000
   N    30.925000    -1.005100     0.508000
   N    30.620000     0.000000     0.000100
   N    -5.840000     0.000000     0.000000
   N    -5.535000    -1.005100     0.508000
   N    -5.840000     0.000000     0.000100
   N   -25.610000     0.000000     0.000000
   N   -25.305000    -1.005100     0.508000
   N   -25.610000     0.000000     0.000100
   N    51.710000     0.000000     0.000000
   N    52.015000    -1.005100     0.508000
   N    51.710000     0.000000     0.000100
   N   -17.620000     0.000000     0.000000
   N   -17.315000    -1.005100     0.508000
   N   -17.620000     0.000000     0.000100
   N   -47.860000     0.000000     0.000000
   N   -47.555000    -1.005100     0.508000
   N   -47.860000     0.000000     0.000100
   N   -14.210000     0.000000     0.000000
   N   -13.905000    -1.005100     0.508000
   N   -14.210000     0.000000     0.000100
   N   -46.870000     0.000000     0.000000
   N   -46.565000    -1.005100     0.508000
   N   -46.870000     0.000000     0.000100
   N    29.610000     0.000000     0.000000
   N    29.915000    -1.005100     0.508000
   N    29.610000     0.000000     0.000100
   N   -42.290000     0.000000     0.000000
   N   -41.985000    -1.005100     0.508000
   N   -42.290000     0.000000     0.000100
   N    51.030000     0.000000     0.000000
   N    51.335000    -1.005100     0.508000
   N    51.030000     0.000000     0.000100
   N     1.280000     0.000000     0.000000
   N     1.585000    -1.005100     0.508000
   N     1.280000     0.000000     0.000100
   N    11.600000     0.000000     0.000000
   N    11.905000    -1.005100     0.508000
   N    11.600000     0.000000     0.000100
   N   -14.970000     0.000000     0.000000
   N   -14.665000    -1.005100     0.508000
   N   -14.970000     0.000000     0.000100
   N   -49.280000     0.000000     0.000000
   N   -48.975000    -1.005100     0.508000
   N   -49.280000     0.000000     0.000100
   N    -9.450000     0.000000     0.000000
   N    -9.145000    -1.005100     0.508000
   N    -9.450000     0.000000     0.000100
   N    -9.500000     0.000000     0.000000
   N    -9.195000    -1.005100     0.508000
   N    -9.500000     0.000000     0.000100
   N   -22.470000     0.000000     0.000000
   N   -22.165000    -1.005100     0.508000
   N   -22.470000     0.000000     0.000100
   N    45.410000     0.000000     0.000000
   N    45.715000    -1.005100     0.508000
   N    45.410000     0.000000     0.000100
   N   -34.290000     0.000000     0.000000
   N   -33.985000    -1.005100     0.508000
   N   -34.290000     0.000000     0.000100
   N    15.820000     0.000000     0.000000
   N    16.125000    -1.005100     0.508000
   N    15.820000     0.000000     0.000100
   N    37.030000     0.000000     0.000000
   N    37.335000    -1.005100     0.508000
   N    37.030000     0.000000     0.000100
   N    -7.490000     0.000000     0.000000
   N    -7.185000    -1.005100     0.508000
   N    -7.490000     0.000000     0.000100
   N    44.570000     0.000000     0.000000
   N    44.875000    -1.005100     0.508000
   N    44.570000     0.000000     0.000100
   N    18.660000     0.000000     0.000000
   N    18.965000    -1.005100     0.508000
   N    18.660000     0.000000     0.000100
   N     6.580000     0.000000     0.000000
   N     6.885000    -1.005100     0.508000
   N     6.580000     0.000000     0.000100
   N   -13.010000     0.000000     0.000000
   N   -12.705000    -1.005100     0.508000
   N   -13.010000     0.000000     0.000100
   N    26.470000     0.000000     0.000000
   N    26.775000    -1.005100     0.508000
   N    26.470000     0.000000     0.000100
   N   -50.450000     0.000000     0.000000
   N   -50.145000    -1.005100     0.508000
   N   -50.450000     0.000000     0.000100
   N    -6.670000     0.000000     0.000000
   N    -6.365000    -1.005100     0.508000
   N    -6.670000     0.000000     0.000100
   N   -26.960000     0.000000     0.000000
   N   -26.655000    -1.005100     0.508000
   N   -26.960000     0.000000     0.000100
   N    16.330000     0.000000     0.000000
   N    16.635000    -1.005100     0.508000
   N    16.330000     0.000000     0.000100
   N   -21.530000     0.000000     0.000000
   N   -21.225000    -1.005100     0.508000
   N   -21.530000     0.000000     0.000100
   N    49.510000     0.000000     0.000000
   N    49.815000    -1.005100     0.508000
   N    49.510000     0.000000     0.000100
   N     4.950000     0.000000     0.000000
   N     5.255000    -1.005100     0.508000
   N     4.950000     0.000000     0.000100
   N   -31.920000     0.000000     0.000000
   N   -31.615000    -1.005100     0.508000
   N   -31.920000     0.000000     0.000100
   N   -17.290000     0.000000     0.000000
   N   -16.985000    -1.005100     0.508000
   N   -17.290000     0.000000     0.000100
   N     8.470000     0.000000     0.000000
   N     8.775000    -1.005100     0.508000
   N     8.470000     0.000000     0.000100
   N   -43.880000     0.000000     0.000000
   N   -43.575000    -1.005100     0.508000
   N   -43.880000     0.000000     0.000100
   N   -10.610000     0.000000     0.000000
   N   -10.305000    -1.005100     0.508000
   N   -10.610000     0.000000     0.000100
   N   -45.950000     0.000000     0.000000
   N   -45.645000    -1.005100     0.508000
   N   -45.950000     0.000000     0.000100
   N    -7.590000     0.000000     0.000000
   N    -7.285000    -1.005100     0.508000
   N    -7.590000     0.000000     0.000100
   N   -14.450000     0.000000     0.000000
   N   -14.145000    -1.005100     0.508000
   N   -14.450000     0.000000     0.000100
   N   -12.060000     0.000000     0.000000
   N   -11.755000    -1.005100     0.508000
   N   -12.060000     0.000000     0.000100
   N     7.700000     0.000000     0.000000
   N     8.005000    -1.005100     0.508000
   N     7.700000     0.000000     0.000100
   N   -15.100000     0.000000     0.000000
   N   -14.795000    -1.005100     0.508000
   N   -15.100000     0.000000     0.000100
   N     7.800000     0.000000     0.000000
   N     8.105000    -1.005100     0.508000
   N     7.800000     0.000000     0.000100
   N   -45.260000     0.000000     0.000000
   N   -44.955000    -1.005100     0.508000
   N   -45.260000     0.000000     0.000100
   S    -3.000000     0.000000     0.000000
   S    -2.700000    -0.400000     0.500000
   S    -2.900000     0.000000     0.000000
   S    -3.100000     0.000000     0.000000
   S    -1.000000     0.000000     0.000000
   S    -0.700000    -0.400000     0.500000
   S    -0.900000     0.000000     0.000000
   S    -1.100000     0.000000     0.000000
   S     1.000000     0.000000     0.000000
   S     1.300000    -0.400000     0.500000
   S     1.100000     0.000000     0.000000
   S     0.900000     0.000000     0.000000
   S     3.000000     0.000000     0.000000
   S     3.300000    -0.400000     0.500000
   S     3.100000     0.000000     0.000000
   S     2.900000     0.000000     0.000000
 nuc   -58.000000     0.000000     0.000000
 nuc   -58.000000     0.000000     0.000000
 nuc    58.000000     0.000000     0.000000
 nuc    58.000000     0.000000     0.000000
