166
iteration: 1000000000
   P    35.000001     0.000000    -1.000000
   P    34.613101    -0.367100    -1.154000
   P    35.300001    -0.400000    -0.500000
   P    35.300001     0.500000    -1.000000
   P    34.700001     0.500000    -0.999999
   P    35.000001     0.000000    -0.999900
   P    52.519304    13.295241     9.995280
   P    52.805890    12.836095    10.118662
   P    52.046531    12.986465     9.569671
   P    52.375851    13.860361    10.003093
   P    52.944324    13.687295     9.920106
   P    52.519288    13.295238     9.995181
   N   -41.269418     0.000000     0.000000
   N   -42.073444     0.618626    -0.576334
   N   -41.269512    -0.000006     0.000035
   N   -44.266101     0.000000     0.000000
   N   -45.070127     0.618626    -0.576334
   N   -44.266195    -0.000006     0.000035
   N    -8.767582     0.000000     0.000000
   N    -9.571608     0.618626    -0.576334
   N    -8.767676    -0.000006     0.000035
   N   -16.629206     0.000000     0.000000
   N   -17.433231     0.618626    -0.576334
   N   -16.629299    -0.000006     0.000035
   N    -9.075677     0.000000     0.000000
   N    -9.879703     0.618626    -0.576334
   N    -9.075771    -0.000006     0.000035
   N   -35.023984     0.000000     0.000000
   N   -35.828010     0.618626    -0.576334
   N   -35.024078    -0.000006     0.000035
   N   -30.422798     0.000000     0.000000
   N   -31.226824     0.618626    -0.576334
   N   -30.422892    -0.000006     0.000035
   N    45.593477     0.000000     0.000000
   N    44.789452     0.618626    -0.576334
   N    45.593384    -0.000006     0.000035
   N   -36.133524     0.000000     0.000000
   N   -36.937549     0.618626    -0.576334
   N   -36.133617    -0.000006     0.000035
   N    12.506426     0.000000     0.000000
   N    11.702401     0.618626    -0.576334
   N    12.506333    -0.000006     0.000035
   N    -9.186166     0.000000     0.000000
   N    -9.990191     0.618626    -0.576334
   N    -9.186259    -0.000006     0.000035
   N   -34.003805     0.000000     0.000000
   N   -34.807831     0.618626    -0.576334
   N   -34.003899    -0.000006     0.000035
   N   -38.826293     0.000000     0.000000
   N   -39.630318     0.618626    -0.576334
   N   -38.826386    -0.000006     0.000035
   N   -30.929911     0.000000     0.000000
   N   -31.733937     0.618626    -0.576334
   N   -30.930005    -0.000006     0.000035
   N   -43.206133     0.000000     0.000000
   N   -44.010158     0.618626    -0.576334
   N   -43.206226    -0.000006     0.000035
   N   -10.032364     0.000000     0.000000
   N   -10.836389     0.618626    -0.576334
   N   -10.032457    -0.000006     0.000035
   N   -43.791508     0.000000     0.000000
   N   -44.595533     0.618626    -0.576334
   N   -43.791601    -0.000006     0.000035
   N   -33.806645     0.000000     0.000000
   N   -34.610670     0.618626    -0.576334
   N   -33.806738    -0.000006     0.000035
   N   -40.455599     0.000000     0.000000
   N   -41.259624     0.618626    -0.576334
   N   -40.455692    -0.000006     0.000035
   N    24.460063     0.000000     0.000000
   N    23.656038     0.618626    -0.576334
   N    24.459970    -0.000006     0.000035
   N   -35.228796     0.000000     0.000000
   N   -36.032821     0.618626    -0.576334
   N   -35.228889    -0.000006     0.000035
   N   -35.883149     0.000000     0.000000
   N   -36.687175     0.618626    -0.576334
   N   -35.883243    -0.000006     0.000035
   N    24.143281     0.000000     0.000000
   N    23.339256     0.618626    -0.576334
   N    24.143188    -0.000006     0.000035
   N    35.354212     0.000000     0.000000
   N    34.550186     0.618626    -0.576334
   N    35.354118    -0.000006     0.000035
   N     7.306959     0.000000     0.000000
   N     6.502934     0.618626    -0.576334
   N     7.306866    -0.000006     0.000035
   N     6.250798     0.000000     0.000000
   N     5.446772     0.618626    -0.576334
   N     6.250704    -0.000006     0.000035
   N    10.964522     0.000000     0.000000
   N    10.160497     0.618626    -0.576334
   N    10.964429    -0.000006     0.000035
   N    12.271790     0.000000     0.000000
   N    11.467765     0.618626    -0.576334
   N    12.271697    -0.000006     0.000035
   N    30.544649     0.000000     0.000000
   N    29.740623     0.618626    -0.576334
   N    30.544555    -0.000006     0.000035
   N    29.564763     0.000000     0.000000
   N    28.760738     0.618626    -0.576334
   N    29.564670    -0.000006     0.000035
   N    11.734290     0.000000     0.000000
   N    10.930265     0.618626    -0.576334
   N    11.734197    -0.000006     0.000035
   N    23.126799     0.000000     0.000000
   N    22.322774     0.618626    -0.576334
   N    23.126706    -0.000006     0.000035
   N    45.275085     0.000000     0.000000
   N    44.471060     0.618626    -0.576334
   N    45.274992    -0.000006     0.000035
   N    12.358888     0.000000     0.000000
   N    11.554862     0.618626    -0.576334
   N    12.358794    -0.000006     0.000035
   N    31.583881     0.000000     0.000000
   N    30.779855     0.618626    -0.576334
   N    31.583787    -0.000006     0.000035
   N    10.337697     0.000000     0.000000
   N     9.533672     0.618626    -0.576334
   N    10.337604    -0.000006     0.000035
   N    35.775640     0.000000     0.000000
   N    34.971614     0.618626    -0.576334
   N    35.775546    -0.000006     0.000035
   N    46.020462     0.000000     0.000000
   N    45.216437     0.618626    -0.576334
   N    46.020369    -0.000006     0.000035
   N    24.493098     0.000000     0.000000
   N    23.689073     0.618626    -0.576334
   N    24.493005    -0.000006     0.000035
   N    18.961451     0.000000     0.000000
   N    18.157426     0.618626    -0.576334
   N    18.961358    -0.000006     0.000035
   N    33.130142     0.000000     0.000000
   N    32.326117     0.618626    -0.576334
   N    33.130049    -0.000006     0.000035
   N    19.522056     0.000000     0.000000
   N    18.718031     0.618626    -0.576334
   N    19.521963    -0.000006     0.000035
   N    12.561457     0.000000     0.000000
   N    11.757431     0.618626    -0.576334
   N    12.561363    -0.000006     0.000035
   N    11.535740     0.000000     0.000000
   N    10.731714     0.618626    -0.576334
   N    11.535646    -0.000006     0.000035
   S   -27.499998     0.000000     0.000000
   S   -27.199998    -0.400000     0.500000
   S   -27.399998     0.000000     0.000000
   S   -27.599998     0.000000     0.000000
   S   -25.499998     0.000000     0.000000
   S   -25.199998    -0.400000     0.500000
   S   -25.399998     0.000000     0.000000
   S   -25.599998     0.000000     0.000000
   S    17.500002     0.000000     0.000000
   S    17.800002    -0.400000     0.500000
   S    17.600002     0.000000     0.000000
   S    17.400002     0.000000     0.000000
   S    35.000001     0.000000     0.000000
   S    35.300001    -0.400000     0.500000
   S    35.100001     0.000000     0.000000
   S    34.900001     0.000000     0.000000
 nuc   -53.000000     0.000000     0.000000
 nuc   -53.000000     0.000000     0.000000
 nuc    53.000000     0.000000     0.000000
 nuc    53.000000     0.000000     0.000000
 nuc     0.000000     0.000000     0.000000
 nuc     0.000000     0.000000     0.000000
166
iteration: 1000000000
   P    35.000001     0.000000    -1.000000
   P    34.613101    -0.367100    -1.154000
   P    35.300001    -0.400000    -0.500000
   P    35.300001     0.500000    -1.000000
   P    34.700001     0.500000    -0.999999
   P    35.000001     0.000000    -0.999900
   P    52.519304    13.295241     9.995280
   P    52.805890    12.836095    10.118662
   P    52.046531    12.986465     9.569671
   P    52.375851    13.860361    10.003093
   P    52.944324    13.687295     9.920106
   P    52.519288    13.295238     9.995181
   N   -41.269418     0.000000     0.000000
   N   -42.073444     0.618626    -0.576334
   N   -41.269512    -0.000006     0.000035
   N   -44.266101     0.000000     0.000000
   N   -45.070127     0.618626    -0.576334
   N   -44.266195    -0.000006     0.000035
   N    -8.767582     0.000000     0.000000
   N    -9.571608     0.618626    -0.576334
   N    -8.767676    -0.000006     0.000035
   N   -16.629206     0.000000     0.000000
   N   -17.433231     0.618626    -0.576334
   N   -16.629299    -0.000006     0.000035
   N    -9.075677     0.000000     0.000000
   N    -9.879703     0.618626    -0.576334
   N    -9.075771    -0.000006     0.000035
   N   -35.023984     0.000000     0.000000
   N   -35.828010     0.618626    -0.576334
   N   -35.024078    -0.000006     0.000035
   N   -30.422798     0.000000     0.000000
   N   -31.226824     0.618626    -0.576334
   N   -30.422892    -0.000006     0.000035
   N    45.593477     0.000000     0.000000
   N    44.789452     0.618626    -0.576334
   N    45.593384    -0.000006     0.000035
   N   -36.133524     0.000000     0.000000
   N   -36.937549     0.618626    -0.576334
   N   -36.133617    -0.000006     0.000035
   N    12.506426     0.000000     0.000000
   N    11.702401     0.618626    -0.576334
   N    12.506333    -0.000006     0.000035
   N    -9.186166     0.000000     0.000000
   N    -9.990191     0.618626    -0.576334
   N    -9.186259    -0.000006     0.000035
   N   -34.003805     0.000000     0.000000
   N   -34.807831     0.618626    -0.576334
   N   -34.003899    -0.000006     0.000035
   N   -38.826293     0.000000     0.000000
   N   -39.630318     0.618626    -0.576334
   N   -38.826386    -0.000006     0.000035
   N   -30.929911     0.000000     0.000000
   N   -31.733937     0.618626    -0.576334
   N   -30.930005    -0.000006     0.000035
   N   -43.206133     0.000000     0.000000
   N   -44.010158     0.618626    -0.576334
   N   -43.206226    -0.000006     0.000035
   N   -10.032364     0.000000     0.000000
   N   -10.836389     0.618626    -0.576334
   N   -10.032457    -0.000006     0.000035
   N   -43.791508     0.000000     0.000000
   N   -44.595533     0.618626    -0.576334
   N   -43.791601    -0.000006     0.000035
   N   -33.806645     0.000000     0.000000
   N   -34.610670     0.618626    -0.576334
   N   -33.806738    -0.000006     0.000035
   N   -40.455599     0.000000     0.000000
   N   -41.259624     0.618626    -0.576334
   N   -40.455692    -0.000006     0.000035
   N    24.460063     0.000000     0.000000
   N    23.656038     0.618626    -0.576334
   N    24.459970    -0.000006     0.000035
   N   -35.228796     0.000000     0.000000
   N   -36.032821     0.618626    -0.576334
   N   -35.228889    -0.000006     0.000035
   N   -35.883149     0.000000     0.000000
   N   -36.687175     0.618626    -0.576334
   N   -35.883243    -0.000006     0.000035
   N    24.143281     0.000000     0.000000
   N    23.339256     0.618626    -0.576334
   N    24.143188    -0.000006     0.000035
   N    35.354212     0.000000     0.000000
   N    34.550186     0.618626    -0.576334
   N    35.354118    -0.000006     0.000035
   N     7.306959     0.000000     0.000000
   N     6.502934     0.618626    -0.576334
   N     7.306866    -0.000006     0.000035
   N     6.250798     0.000000     0.000000
   N     5.446772     0.618626    -0.576334
   N     6.250704    -0.000006     0.000035
   N    10.964522     0.000000     0.000000
   N    10.160497     0.618626    -0.576334
   N    10.964429    -0.000006     0.000035
   N    12.271790     0.000000     0.000000
   N    11.467765     0.618626    -0.576334
   N    12.271697    -0.000006     0.000035
   N    30.544649     0.000000     0.000000
   N    29.740623     0.618626    -0.576334
   N    30.544555    -0.000006     0.000035
   N    29.564763     0.000000     0.000000
   N    28.760738     0.618626    -0.576334
   N    29.564670    -0.000006     0.000035
   N    11.734290     0.000000     0.000000
   N    10.930265     0.618626    -0.576334
   N    11.734197    -0.000006     0.000035
   N    23.126799     0.000000     0.000000
   N    22.322774     0.618626    -0.576334
   N    23.126706    -0.000006     0.000035
   N    45.275085     0.000000     0.000000
   N    44.471060     0.618626    -0.576334
   N    45.274992    -0.000006     0.000035
   N    12.358888     0.000000     0.000000
   N    11.554862     0.618626    -0.576334
   N    12.358794    -0.000006     0.000035
   N    31.583881     0.000000     0.000000
   N    30.779855     0.618626    -0.576334
   N    31.583787    -0.000006     0.000035
   N    10.337697     0.000000     0.000000
   N     9.533672     0.618626    -0.576334
   N    10.337604    -0.000006     0.000035
   N    35.775640     0.000000     0.000000
   N    34.971614     0.618626    -0.576334
   N    35.775546    -0.000006     0.000035
   N    46.020462     0.000000     0.000000
   N    45.216437     0.618626    -0.576334
   N    46.020369    -0.000006     0.000035
   N    24.493098     0.000000     0.000000
   N    23.689073     0.618626    -0.576334
   N    24.493005    -0.000006     0.000035
   N    18.961451     0.000000     0.000000
   N    18.157426     0.618626    -0.576334
   N    18.961358    -0.000006     0.000035
   N    33.130142     0.000000     0.000000
   N    32.326117     0.618626    -0.576334
   N    33.130049    -0.000006     0.000035
   N    19.522056     0.000000     0.000000
   N    18.718031     0.618626    -0.576334
   N    19.521963    -0.000006     0.000035
   N    12.561457     0.000000     0.000000
   N    11.757431     0.618626    -0.576334
   N    12.561363    -0.000006     0.000035
   N    11.535740     0.000000     0.000000
   N    10.731714     0.618626    -0.576334
   N    11.535646    -0.000006     0.000035
   S   -27.499998     0.000000     0.000000
   S   -27.199998    -0.400000     0.500000
   S   -27.399998     0.000000     0.000000
   S   -27.599998     0.000000     0.000000
   S   -25.499998     0.000000     0.000000
   S   -25.199998    -0.400000     0.500000
   S   -25.399998     0.000000     0.000000
   S   -25.599998     0.000000     0.000000
   S    17.500002     0.000000     0.000000
   S    17.800002    -0.400000     0.500000
   S    17.600002     0.000000     0.000000
   S    17.400002     0.000000     0.000000
   S    35.000001     0.000000     0.000000
   S    35.300001    -0.400000     0.500000
   S    35.100001     0.000000     0.000000
   S    34.900001     0.000000     0.000000
 nuc   -53.000000     0.000000     0.000000
 nuc   -53.000000     0.000000     0.000000
 nuc    53.000000     0.000000     0.000000
 nuc    53.000000     0.000000     0.000000
 nuc     0.000000     0.000000     0.000000
 nuc     0.000000     0.000000     0.000000
