166
mol output final
   P   -23.090236     3.048715     5.029221
   P   -23.558807     2.767592     5.127101
   P   -22.658083     2.616776     5.385132
   P   -22.748411     3.471140     4.817768
   P   -23.263853     3.601354     5.095911
   P   -23.090187     3.048720     5.029309
   P    35.000001     0.000001    -1.235933
   P    34.613101    -0.367099    -1.389933
   P    35.300001    -0.400000    -0.735933
   P    35.300001     0.500000    -1.235933
   P    34.700001     0.500001    -1.235932
   P    35.000001     0.000001    -1.235833
   N   -41.926239     0.000000     0.000000
   N   -42.730264     0.618626    -0.576334
   N   -41.926332    -0.000006     0.000035
   N   -20.277156     0.000000     0.000000
   N   -21.081181     0.618626    -0.576334
   N   -20.277249    -0.000006     0.000035
   N   -12.858703     0.000000     0.000000
   N   -13.662729     0.618626    -0.576334
   N   -12.858797    -0.000006     0.000035
   N   -18.259234     0.000000     0.000000
   N   -19.063259     0.618626    -0.576334
   N   -18.259327    -0.000006     0.000035
   N   -19.994228     0.000000     0.000000
   N   -20.798253     0.618626    -0.576334
   N   -19.994321    -0.000006     0.000035
   N   -45.555351     0.000000     0.000000
   N   -46.359377     0.618626    -0.576334
   N   -45.555445    -0.000006     0.000035
   N   -23.557504     0.000000     0.000000
   N   -24.361529     0.618626    -0.576334
   N   -23.557597    -0.000006     0.000035
   N   -10.236418     0.000000     0.000000
   N   -11.040443     0.618626    -0.576334
   N   -10.236511    -0.000006     0.000035
   N   -36.813597     0.000000     0.000000
   N   -37.617622     0.618626    -0.576334
   N   -36.813690    -0.000006     0.000035
   N   -12.296809     0.000000     0.000000
   N   -13.100834     0.618626    -0.576334
   N   -12.296902    -0.000006     0.000035
   N   -30.068715     0.000000     0.000000
   N   -30.872741     0.618626    -0.576334
   N   -30.068809    -0.000006     0.000035
   N   -35.536756     0.000000     0.000000
   N   -36.340781     0.618626    -0.576334
   N   -35.536849    -0.000006     0.000035
   N   -46.058004     0.000000     0.000000
   N   -46.862029     0.618626    -0.576334
   N   -46.058097    -0.000006     0.000035
   N   -43.133097     0.000000     0.000000
   N   -43.937122     0.618626    -0.576334
   N   -43.133190    -0.000006     0.000035
   N   -44.858360     0.000000     0.000000
   N   -45.662386     0.618626    -0.576334
   N   -44.858454    -0.000006     0.000035
   N   -10.147897     0.000000     0.000000
   N   -10.951922     0.618626    -0.576334
   N   -10.147990    -0.000006     0.000035
   N   -27.011727     0.000000     0.000000
   N   -27.815752     0.618626    -0.576334
   N   -27.011820    -0.000006     0.000035
   N   -34.798367     0.000000     0.000000
   N   -35.602392     0.618626    -0.576334
   N   -34.798460    -0.000006     0.000035
   N   -26.700013     0.000000     0.000000
   N   -27.504038     0.618626    -0.576334
   N   -26.700106    -0.000006     0.000035
   N   -12.229690     0.000000     0.000000
   N   -13.033715     0.618626    -0.576334
   N   -12.229783    -0.000006     0.000035
   N   -21.384091     0.000000     0.000000
   N   -22.188117     0.618626    -0.576334
   N   -21.384184    -0.000006     0.000035
   N   -26.730625     0.000000     0.000000
   N   -27.534650     0.618626    -0.576334
   N   -26.730718    -0.000006     0.000035
   N    40.903761     0.000000     0.000000
   N    40.099736     0.618626    -0.576334
   N    40.903668    -0.000006     0.000035
   N    27.952775     0.000000     0.000000
   N    27.148750     0.618626    -0.576334
   N    27.952681    -0.000006     0.000035
   N     9.981384     0.000000     0.000000
   N     9.177359     0.618626    -0.576334
   N     9.981291    -0.000006     0.000035
   N    26.249761     0.000000     0.000000
   N    25.445736     0.618626    -0.576334
   N    26.249668    -0.000006     0.000035
   N    19.927926     0.000000     0.000000
   N    19.123901     0.618626    -0.576334
   N    19.927833    -0.000006     0.000035
   N    19.106429     0.000000     0.000000
   N    18.302404     0.618626    -0.576334
   N    19.106336    -0.000006     0.000035
   N    18.295099     0.000000     0.000000
   N    17.491073     0.618626    -0.576334
   N    18.295005    -0.000006     0.000035
   N    44.155593     0.000000     0.000000
   N    43.351568     0.618626    -0.576334
   N    44.155500    -0.000006     0.000035
   N    26.847349     0.000000     0.000000
   N    26.043323     0.618626    -0.576334
   N    26.847255    -0.000006     0.000035
   N    46.281768     0.000000     0.000000
   N    45.477743     0.618626    -0.576334
   N    46.281675    -0.000006     0.000035
   N    29.484727     0.000000     0.000000
   N    28.680702     0.618626    -0.576334
   N    29.484633    -0.000006     0.000035
   N    10.357723     0.000000     0.000000
   N     9.553698     0.618626    -0.576334
   N    10.357630    -0.000006     0.000035
   N    10.589616     0.000000     0.000000
   N     9.785591     0.618626    -0.576334
   N    10.589523    -0.000006     0.000035
   N     5.654603     0.000000     0.000000
   N     4.850578     0.618626    -0.576334
   N     5.654509    -0.000006     0.000035
   N     9.054252     0.000000     0.000000
   N     8.250227     0.618626    -0.576334
   N     9.054159    -0.000006     0.000035
   N    44.489722     0.000000     0.000000
   N    43.685696     0.618626    -0.576333
   N    44.489629    -0.000006     0.000035
   N     6.337928     0.000000     0.000000
   N     5.533903     0.618626    -0.576334
   N     6.337835    -0.000006     0.000035
   N    31.410555     0.000000     0.000000
   N    30.606529     0.618626    -0.576334
   N    31.410461    -0.000006     0.000035
   N    44.564379     0.000000     0.000000
   N    43.760353     0.618626    -0.576334
   N    44.564285    -0.000006     0.000035
   N    12.214561     0.000000     0.000000
   N    11.410535     0.618626    -0.576334
   N    12.214467    -0.000006     0.000035
   N    19.565055     0.000000     0.000000
   N    18.761030     0.618626    -0.576334
   N    19.564961    -0.000006     0.000035
   N   -23.419469     0.000000     0.000000
   N   -24.223494     0.618626    -0.576334
   N   -23.419562    -0.000006     0.000035
   S   -27.499998     0.000000     0.000000
   S   -27.199998    -0.400000     0.500000
   S   -27.399998     0.000000     0.000000
   S   -27.599998     0.000000     0.000000
   S   -25.499998     0.000000     0.000000
   S   -25.199998    -0.400000     0.500000
   S   -25.399998     0.000000     0.000000
   S   -25.599998     0.000000     0.000000
   S    17.500001     0.000000     0.000000
   S    17.800001    -0.400000     0.500000
   S    17.600001     0.000000     0.000000
   S    17.400001     0.000000     0.000000
   S    35.000001     0.000000     0.000000
   S    35.300001    -0.400000     0.500000
   S    35.100001     0.000000     0.000000
   S    34.900001     0.000000     0.000000
 nuc   -53.000000     0.000000     0.000000
 nuc   -53.000000     0.000000     0.000000
 nuc    53.000000     0.000000     0.000000
 nuc    53.000000     0.000000     0.000000
 nuc     0.000000     0.000000     0.000000
 nuc     0.000000     0.000000     0.000000
