166
iteration: 1000000000
   P   -25.499998     0.000000    -1.000000
   P   -25.886898    -0.367100    -1.154000
   P   -25.199998    -0.400000    -0.500000
   P   -25.199998     0.500000    -1.000000
   P   -25.799998     0.500000    -0.999999
   P   -25.499998     0.000000    -0.999900
   P   -27.499998     0.000000    -1.126210
   P   -27.886898    -0.367100    -1.280210
   P   -27.199998    -0.400000    -0.626211
   P   -27.199998     0.500000    -1.126210
   P   -27.799998     0.500000    -1.126210
   P   -27.499998     0.000000    -1.126110
   N   -44.947239     0.000000     0.000000
   N   -45.751264     0.618626    -0.576334
   N   -44.947332    -0.000006     0.000035
   N   -31.760989     0.000000     0.000000
   N   -32.565014     0.618626    -0.576334
   N   -31.761082    -0.000006     0.000035
   N   -13.286291     0.000000     0.000000
   N   -14.090317     0.618626    -0.576334
   N   -13.286385    -0.000006     0.000035
   N   -47.072464     0.000000     0.000000
   N   -47.876490     0.618626    -0.576334
   N   -47.072558    -0.000006     0.000035
   N   -12.099633     0.000000     0.000000
   N   -12.903659     0.618626    -0.576333
   N   -12.099726    -0.000006     0.000035
   N    -7.335800     0.000000     0.000000
   N    -8.139826     0.618626    -0.576334
   N    -7.335894    -0.000006     0.000035
   N   -32.470631     0.000000     0.000000
   N   -33.274656     0.618626    -0.576334
   N   -32.470724    -0.000006     0.000035
   N   -46.387141     0.000000     0.000000
   N   -47.191167     0.618626    -0.576334
   N   -46.387234    -0.000006     0.000035
   N   -37.971757     0.000000     0.000000
   N   -38.775782     0.618626    -0.576334
   N   -37.971850    -0.000006     0.000035
   N    23.403240     0.000000     0.000000
   N    22.599215     0.618626    -0.576334
   N    23.403146    -0.000006     0.000035
   N    -8.053992     0.000000     0.000000
   N    -8.858018     0.618626    -0.576334
   N    -8.054086    -0.000006     0.000035
   N   -40.958312     0.000000     0.000000
   N   -41.762337     0.618626    -0.576334
   N   -40.958405    -0.000006     0.000035
   N   -13.501469     0.000000     0.000000
   N   -14.305495     0.618626    -0.576334
   N   -13.501563    -0.000006     0.000035
   N   -16.237967     0.000000     0.000000
   N   -17.041993     0.618626    -0.576334
   N   -16.238061    -0.000006     0.000035
   N   -32.846643     0.000000     0.000000
   N   -33.650668     0.618626    -0.576334
   N   -32.846736    -0.000006     0.000035
   N   -17.522305     0.000000     0.000000
   N   -18.326330     0.618626    -0.576334
   N   -17.522398    -0.000006     0.000035
   N   -41.764513     0.000000     0.000000
   N   -42.568538     0.618626    -0.576334
   N   -41.764606    -0.000006     0.000035
   N   -15.079696     0.000000     0.000000
   N   -15.883722     0.618626    -0.576333
   N   -15.079790    -0.000006     0.000035
   N   -37.823002     0.000000     0.000000
   N   -38.627027     0.618626    -0.576334
   N   -37.823095    -0.000006     0.000035
   N   -19.376182     0.000000     0.000000
   N   -20.180208     0.618626    -0.576334
   N   -19.376276    -0.000006     0.000035
   N   -42.670374     0.000000     0.000000
   N   -43.474399     0.618626    -0.576334
   N   -42.670467    -0.000006     0.000035
   N   -35.024084     0.000000     0.000000
   N   -35.828110     0.618626    -0.576334
   N   -35.024178    -0.000006     0.000035
   N    19.610326     0.000000     0.000000
   N    18.806301     0.618626    -0.576334
   N    19.610233    -0.000006     0.000035
   N     7.280085     0.000000     0.000000
   N     6.476060     0.618626    -0.576334
   N     7.279991    -0.000006     0.000035
   N    44.776740     0.000000     0.000000
   N    43.972714     0.618626    -0.576334
   N    44.776647    -0.000006     0.000035
   N    18.907711     0.000000     0.000000
   N    18.103686     0.618626    -0.576334
   N    18.907617    -0.000006     0.000035
   N    11.194008     0.000000     0.000000
   N    10.389983     0.618626    -0.576334
   N    11.193915    -0.000006     0.000035
   N    23.140942     0.000000     0.000000
   N    22.336916     0.618626    -0.576334
   N    23.140848    -0.000006     0.000035
   N    19.114576     0.000000     0.000000
   N    18.310551     0.618626    -0.576334
   N    19.114483    -0.000006     0.000035
   N    25.135591     0.000000     0.000000
   N    24.331565     0.618626    -0.576334
   N    25.135497    -0.000006     0.000035
   N    43.581913     0.000000     0.000000
   N    42.777888     0.618626    -0.576334
   N    43.581820    -0.000006     0.000035
   N    16.600183     0.000000     0.000000
   N    15.796158     0.618626    -0.576334
   N    16.600090    -0.000006     0.000035
   N    13.640299     0.000000     0.000000
   N    12.836274     0.618626    -0.576334
   N    13.640206    -0.000006     0.000035
   N     8.971272     0.000000     0.000000
   N     8.167247     0.618626    -0.576334
   N     8.971179    -0.000006     0.000035
   N    41.267059     0.000000     0.000000
   N    40.463034     0.618626    -0.576334
   N    41.266966    -0.000006     0.000035
   N    22.413092     0.000000     0.000000
   N    21.609068     0.618626    -0.576334
   N    22.412999    -0.000006     0.000035
   N    30.653044     0.000000     0.000000
   N    29.849019     0.618626    -0.576334
   N    30.652951    -0.000006     0.000035
   N    40.189149     0.000000     0.000000
   N    39.385124     0.618626    -0.576334
   N    40.189056    -0.000006     0.000035
   N    23.390438     0.000000     0.000000
   N    22.586413     0.618626    -0.576334
   N    23.390345    -0.000006     0.000035
   N    22.164697     0.000000     0.000000
   N    21.360672     0.618626    -0.576334
   N    22.164603    -0.000006     0.000035
   N    10.412590     0.000000     0.000000
   N     9.608566     0.618626    -0.576334
   N    10.412497    -0.000006     0.000035
   N    22.902487     0.000000     0.000000
   N    22.098462     0.618626    -0.576334
   N    22.902393    -0.000006     0.000035
   N    29.764261     0.000000     0.000000
   N    28.960236     0.618626    -0.576334
   N    29.764168    -0.000006     0.000035
   N    36.757705     0.000000     0.000000
   N    35.953680     0.618627    -0.576333
   N    36.757612    -0.000006     0.000035
   S   -27.499998     0.000000     0.000000
   S   -27.199998    -0.400000     0.500000
   S   -27.399998     0.000000     0.000000
   S   -27.599998     0.000000     0.000000
   S   -25.499998     0.000000     0.000000
   S   -25.199998    -0.400000     0.500000
   S   -25.399998     0.000000     0.000000
   S   -25.599998     0.000000     0.000000
   S    17.500001     0.000000     0.000000
   S    17.800001    -0.400000     0.500000
   S    17.600001     0.000000     0.000000
   S    17.400001     0.000000     0.000000
   S    35.000001     0.000000     0.000000
   S    35.300001    -0.400000     0.500000
   S    35.100001     0.000000     0.000000
   S    34.900001     0.000000     0.000000
 nuc   -53.000000     0.000000     0.000000
 nuc   -53.000000     0.000000     0.000000
 nuc    53.000000     0.000000     0.000000
 nuc    53.000000     0.000000     0.000000
 nuc     0.000000     0.000000     0.000000
 nuc     0.000000     0.000000     0.000000
166
iteration: 1000000000
   P   -25.499998     0.000000    -1.000000
   P   -25.886898    -0.367100    -1.154000
   P   -25.199998    -0.400000    -0.500000
   P   -25.199998     0.500000    -1.000000
   P   -25.799998     0.500000    -0.999999
   P   -25.499998     0.000000    -0.999900
   P   -27.499998     0.000000    -1.126210
   P   -27.886898    -0.367100    -1.280210
   P   -27.199998    -0.400000    -0.626211
   P   -27.199998     0.500000    -1.126210
   P   -27.799998     0.500000    -1.126210
   P   -27.499998     0.000000    -1.126110
   N   -44.947239     0.000000     0.000000
   N   -45.751264     0.618626    -0.576334
   N   -44.947332    -0.000006     0.000035
   N   -31.760989     0.000000     0.000000
   N   -32.565014     0.618626    -0.576334
   N   -31.761082    -0.000006     0.000035
   N   -13.286291     0.000000     0.000000
   N   -14.090317     0.618626    -0.576334
   N   -13.286385    -0.000006     0.000035
   N   -47.072464     0.000000     0.000000
   N   -47.876490     0.618626    -0.576334
   N   -47.072558    -0.000006     0.000035
   N   -12.099633     0.000000     0.000000
   N   -12.903659     0.618626    -0.576333
   N   -12.099726    -0.000006     0.000035
   N    -7.335800     0.000000     0.000000
   N    -8.139826     0.618626    -0.576334
   N    -7.335894    -0.000006     0.000035
   N   -32.470631     0.000000     0.000000
   N   -33.274656     0.618626    -0.576334
   N   -32.470724    -0.000006     0.000035
   N   -46.387141     0.000000     0.000000
   N   -47.191167     0.618626    -0.576334
   N   -46.387234    -0.000006     0.000035
   N   -37.971757     0.000000     0.000000
   N   -38.775782     0.618626    -0.576334
   N   -37.971850    -0.000006     0.000035
   N    23.403240     0.000000     0.000000
   N    22.599215     0.618626    -0.576334
   N    23.403146    -0.000006     0.000035
   N    -8.053992     0.000000     0.000000
   N    -8.858018     0.618626    -0.576334
   N    -8.054086    -0.000006     0.000035
   N   -40.958312     0.000000     0.000000
   N   -41.762337     0.618626    -0.576334
   N   -40.958405    -0.000006     0.000035
   N   -13.501469     0.000000     0.000000
   N   -14.305495     0.618626    -0.576334
   N   -13.501563    -0.000006     0.000035
   N   -16.237967     0.000000     0.000000
   N   -17.041993     0.618626    -0.576334
   N   -16.238061    -0.000006     0.000035
   N   -32.846643     0.000000     0.000000
   N   -33.650668     0.618626    -0.576334
   N   -32.846736    -0.000006     0.000035
   N   -17.522305     0.000000     0.000000
   N   -18.326330     0.618626    -0.576334
   N   -17.522398    -0.000006     0.000035
   N   -41.764513     0.000000     0.000000
   N   -42.568538     0.618626    -0.576334
   N   -41.764606    -0.000006     0.000035
   N   -15.079696     0.000000     0.000000
   N   -15.883722     0.618626    -0.576333
   N   -15.079790    -0.000006     0.000035
   N   -37.823002     0.000000     0.000000
   N   -38.627027     0.618626    -0.576334
   N   -37.823095    -0.000006     0.000035
   N   -19.376182     0.000000     0.000000
   N   -20.180208     0.618626    -0.576334
   N   -19.376276    -0.000006     0.000035
   N   -42.670374     0.000000     0.000000
   N   -43.474399     0.618626    -0.576334
   N   -42.670467    -0.000006     0.000035
   N   -35.024084     0.000000     0.000000
   N   -35.828110     0.618626    -0.576334
   N   -35.024178    -0.000006     0.000035
   N    19.610326     0.000000     0.000000
   N    18.806301     0.618626    -0.576334
   N    19.610233    -0.000006     0.000035
   N     7.280085     0.000000     0.000000
   N     6.476060     0.618626    -0.576334
   N     7.279991    -0.000006     0.000035
   N    44.776740     0.000000     0.000000
   N    43.972714     0.618626    -0.576334
   N    44.776647    -0.000006     0.000035
   N    18.907711     0.000000     0.000000
   N    18.103686     0.618626    -0.576334
   N    18.907617    -0.000006     0.000035
   N    11.194008     0.000000     0.000000
   N    10.389983     0.618626    -0.576334
   N    11.193915    -0.000006     0.000035
   N    23.140942     0.000000     0.000000
   N    22.336916     0.618626    -0.576334
   N    23.140848    -0.000006     0.000035
   N    19.114576     0.000000     0.000000
   N    18.310551     0.618626    -0.576334
   N    19.114483    -0.000006     0.000035
   N    25.135591     0.000000     0.000000
   N    24.331565     0.618626    -0.576334
   N    25.135497    -0.000006     0.000035
   N    43.581913     0.000000     0.000000
   N    42.777888     0.618626    -0.576334
   N    43.581820    -0.000006     0.000035
   N    16.600183     0.000000     0.000000
   N    15.796158     0.618626    -0.576334
   N    16.600090    -0.000006     0.000035
   N    13.640299     0.000000     0.000000
   N    12.836274     0.618626    -0.576334
   N    13.640206    -0.000006     0.000035
   N     8.971272     0.000000     0.000000
   N     8.167247     0.618626    -0.576334
   N     8.971179    -0.000006     0.000035
   N    41.267059     0.000000     0.000000
   N    40.463034     0.618626    -0.576334
   N    41.266966    -0.000006     0.000035
   N    22.413092     0.000000     0.000000
   N    21.609068     0.618626    -0.576334
   N    22.412999    -0.000006     0.000035
   N    30.653044     0.000000     0.000000
   N    29.849019     0.618626    -0.576334
   N    30.652951    -0.000006     0.000035
   N    40.189149     0.000000     0.000000
   N    39.385124     0.618626    -0.576334
   N    40.189056    -0.000006     0.000035
   N    23.390438     0.000000     0.000000
   N    22.586413     0.618626    -0.576334
   N    23.390345    -0.000006     0.000035
   N    22.164697     0.000000     0.000000
   N    21.360672     0.618626    -0.576334
   N    22.164603    -0.000006     0.000035
   N    10.412590     0.000000     0.000000
   N     9.608566     0.618626    -0.576334
   N    10.412497    -0.000006     0.000035
   N    22.902487     0.000000     0.000000
   N    22.098462     0.618626    -0.576334
   N    22.902393    -0.000006     0.000035
   N    29.764261     0.000000     0.000000
   N    28.960236     0.618626    -0.576334
   N    29.764168    -0.000006     0.000035
   N    36.757705     0.000000     0.000000
   N    35.953680     0.618627    -0.576333
   N    36.757612    -0.000006     0.000035
   S   -27.499998     0.000000     0.000000
   S   -27.199998    -0.400000     0.500000
   S   -27.399998     0.000000     0.000000
   S   -27.599998     0.000000     0.000000
   S   -25.499998     0.000000     0.000000
   S   -25.199998    -0.400000     0.500000
   S   -25.399998     0.000000     0.000000
   S   -25.599998     0.000000     0.000000
   S    17.500001     0.000000     0.000000
   S    17.800001    -0.400000     0.500000
   S    17.600001     0.000000     0.000000
   S    17.400001     0.000000     0.000000
   S    35.000001     0.000000     0.000000
   S    35.300001    -0.400000     0.500000
   S    35.100001     0.000000     0.000000
   S    34.900001     0.000000     0.000000
 nuc   -53.000000     0.000000     0.000000
 nuc   -53.000000     0.000000     0.000000
 nuc    53.000000     0.000000     0.000000
 nuc    53.000000     0.000000     0.000000
 nuc     0.000000     0.000000     0.000000
 nuc     0.000000     0.000000     0.000000
166
iteration: 1000000000
   P   -23.090236     3.048715     5.029221
   P   -23.558807     2.767592     5.127101
   P   -22.658083     2.616776     5.385132
   P   -22.748411     3.471140     4.817768
   P   -23.263853     3.601354     5.095911
   P   -23.090187     3.048720     5.029309
   P    35.000001     0.000001    -1.235933
   P    34.613101    -0.367099    -1.389933
   P    35.300001    -0.400000    -0.735933
   P    35.300001     0.500000    -1.235933
   P    34.700001     0.500001    -1.235932
   P    35.000001     0.000001    -1.235833
   N   -41.926239     0.000000     0.000000
   N   -42.730264     0.618626    -0.576334
   N   -41.926332    -0.000006     0.000035
   N   -20.277156     0.000000     0.000000
   N   -21.081181     0.618626    -0.576334
   N   -20.277249    -0.000006     0.000035
   N   -12.858703     0.000000     0.000000
   N   -13.662729     0.618626    -0.576334
   N   -12.858797    -0.000006     0.000035
   N   -18.259234     0.000000     0.000000
   N   -19.063259     0.618626    -0.576334
   N   -18.259327    -0.000006     0.000035
   N   -19.994228     0.000000     0.000000
   N   -20.798253     0.618626    -0.576334
   N   -19.994321    -0.000006     0.000035
   N   -45.555351     0.000000     0.000000
   N   -46.359377     0.618626    -0.576334
   N   -45.555445    -0.000006     0.000035
   N   -23.557504     0.000000     0.000000
   N   -24.361529     0.618626    -0.576334
   N   -23.557597    -0.000006     0.000035
   N   -10.236418     0.000000     0.000000
   N   -11.040443     0.618626    -0.576334
   N   -10.236511    -0.000006     0.000035
   N   -36.813597     0.000000     0.000000
   N   -37.617622     0.618626    -0.576334
   N   -36.813690    -0.000006     0.000035
   N   -12.296809     0.000000     0.000000
   N   -13.100834     0.618626    -0.576334
   N   -12.296902    -0.000006     0.000035
   N   -30.068715     0.000000     0.000000
   N   -30.872741     0.618626    -0.576334
   N   -30.068809    -0.000006     0.000035
   N   -35.536756     0.000000     0.000000
   N   -36.340781     0.618626    -0.576334
   N   -35.536849    -0.000006     0.000035
   N   -46.058004     0.000000     0.000000
   N   -46.862029     0.618626    -0.576334
   N   -46.058097    -0.000006     0.000035
   N   -43.133097     0.000000     0.000000
   N   -43.937122     0.618626    -0.576334
   N   -43.133190    -0.000006     0.000035
   N   -44.858360     0.000000     0.000000
   N   -45.662386     0.618626    -0.576334
   N   -44.858454    -0.000006     0.000035
   N   -10.147897     0.000000     0.000000
   N   -10.951922     0.618626    -0.576334
   N   -10.147990    -0.000006     0.000035
   N   -27.011727     0.000000     0.000000
   N   -27.815752     0.618626    -0.576334
   N   -27.011820    -0.000006     0.000035
   N   -34.798367     0.000000     0.000000
   N   -35.602392     0.618626    -0.576334
   N   -34.798460    -0.000006     0.000035
   N   -26.700013     0.000000     0.000000
   N   -27.504038     0.618626    -0.576334
   N   -26.700106    -0.000006     0.000035
   N   -12.229690     0.000000     0.000000
   N   -13.033715     0.618626    -0.576334
   N   -12.229783    -0.000006     0.000035
   N   -21.384091     0.000000     0.000000
   N   -22.188117     0.618626    -0.576334
   N   -21.384184    -0.000006     0.000035
   N   -26.730625     0.000000     0.000000
   N   -27.534650     0.618626    -0.576334
   N   -26.730718    -0.000006     0.000035
   N    40.903761     0.000000     0.000000
   N    40.099736     0.618626    -0.576334
   N    40.903668    -0.000006     0.000035
   N    27.952775     0.000000     0.000000
   N    27.148750     0.618626    -0.576334
   N    27.952681    -0.000006     0.000035
   N     9.981384     0.000000     0.000000
   N     9.177359     0.618626    -0.576334
   N     9.981291    -0.000006     0.000035
   N    26.249761     0.000000     0.000000
   N    25.445736     0.618626    -0.576334
   N    26.249668    -0.000006     0.000035
   N    19.927926     0.000000     0.000000
   N    19.123901     0.618626    -0.576334
   N    19.927833    -0.000006     0.000035
   N    19.106429     0.000000     0.000000
   N    18.302404     0.618626    -0.576334
   N    19.106336    -0.000006     0.000035
   N    18.295099     0.000000     0.000000
   N    17.491073     0.618626    -0.576334
   N    18.295005    -0.000006     0.000035
   N    44.155593     0.000000     0.000000
   N    43.351568     0.618626    -0.576334
   N    44.155500    -0.000006     0.000035
   N    26.847349     0.000000     0.000000
   N    26.043323     0.618626    -0.576334
   N    26.847255    -0.000006     0.000035
   N    46.281768     0.000000     0.000000
   N    45.477743     0.618626    -0.576334
   N    46.281675    -0.000006     0.000035
   N    29.484727     0.000000     0.000000
   N    28.680702     0.618626    -0.576334
   N    29.484633    -0.000006     0.000035
   N    10.357723     0.000000     0.000000
   N     9.553698     0.618626    -0.576334
   N    10.357630    -0.000006     0.000035
   N    10.589616     0.000000     0.000000
   N     9.785591     0.618626    -0.576334
   N    10.589523    -0.000006     0.000035
   N     5.654603     0.000000     0.000000
   N     4.850578     0.618626    -0.576334
   N     5.654509    -0.000006     0.000035
   N     9.054252     0.000000     0.000000
   N     8.250227     0.618626    -0.576334
   N     9.054159    -0.000006     0.000035
   N    44.489722     0.000000     0.000000
   N    43.685696     0.618626    -0.576333
   N    44.489629    -0.000006     0.000035
   N     6.337928     0.000000     0.000000
   N     5.533903     0.618626    -0.576334
   N     6.337835    -0.000006     0.000035
   N    31.410555     0.000000     0.000000
   N    30.606529     0.618626    -0.576334
   N    31.410461    -0.000006     0.000035
   N    44.564379     0.000000     0.000000
   N    43.760353     0.618626    -0.576334
   N    44.564285    -0.000006     0.000035
   N    12.214561     0.000000     0.000000
   N    11.410535     0.618626    -0.576334
   N    12.214467    -0.000006     0.000035
   N    19.565055     0.000000     0.000000
   N    18.761030     0.618626    -0.576334
   N    19.564961    -0.000006     0.000035
   N   -23.419469     0.000000     0.000000
   N   -24.223494     0.618626    -0.576334
   N   -23.419562    -0.000006     0.000035
   S   -27.499998     0.000000     0.000000
   S   -27.199998    -0.400000     0.500000
   S   -27.399998     0.000000     0.000000
   S   -27.599998     0.000000     0.000000
   S   -25.499998     0.000000     0.000000
   S   -25.199998    -0.400000     0.500000
   S   -25.399998     0.000000     0.000000
   S   -25.599998     0.000000     0.000000
   S    17.500001     0.000000     0.000000
   S    17.800001    -0.400000     0.500000
   S    17.600001     0.000000     0.000000
   S    17.400001     0.000000     0.000000
   S    35.000001     0.000000     0.000000
   S    35.300001    -0.400000     0.500000
   S    35.100001     0.000000     0.000000
   S    34.900001     0.000000     0.000000
 nuc   -53.000000     0.000000     0.000000
 nuc   -53.000000     0.000000     0.000000
 nuc    53.000000     0.000000     0.000000
 nuc    53.000000     0.000000     0.000000
 nuc     0.000000     0.000000     0.000000
 nuc     0.000000     0.000000     0.000000
166
iteration: 1000000000
   P   -23.090236     3.048715     5.029221
   P   -23.558807     2.767592     5.127101
   P   -22.658083     2.616776     5.385132
   P   -22.748411     3.471140     4.817768
   P   -23.263853     3.601354     5.095911
   P   -23.090187     3.048720     5.029309
   P    35.000001     0.000001    -1.235933
   P    34.613101    -0.367099    -1.389933
   P    35.300001    -0.400000    -0.735933
   P    35.300001     0.500000    -1.235933
   P    34.700001     0.500001    -1.235932
   P    35.000001     0.000001    -1.235833
   N   -41.926239     0.000000     0.000000
   N   -42.730264     0.618626    -0.576334
   N   -41.926332    -0.000006     0.000035
   N   -20.277156     0.000000     0.000000
   N   -21.081181     0.618626    -0.576334
   N   -20.277249    -0.000006     0.000035
   N   -12.858703     0.000000     0.000000
   N   -13.662729     0.618626    -0.576334
   N   -12.858797    -0.000006     0.000035
   N   -18.259234     0.000000     0.000000
   N   -19.063259     0.618626    -0.576334
   N   -18.259327    -0.000006     0.000035
   N   -19.994228     0.000000     0.000000
   N   -20.798253     0.618626    -0.576334
   N   -19.994321    -0.000006     0.000035
   N   -45.555351     0.000000     0.000000
   N   -46.359377     0.618626    -0.576334
   N   -45.555445    -0.000006     0.000035
   N   -23.557504     0.000000     0.000000
   N   -24.361529     0.618626    -0.576334
   N   -23.557597    -0.000006     0.000035
   N   -10.236418     0.000000     0.000000
   N   -11.040443     0.618626    -0.576334
   N   -10.236511    -0.000006     0.000035
   N   -36.813597     0.000000     0.000000
   N   -37.617622     0.618626    -0.576334
   N   -36.813690    -0.000006     0.000035
   N   -12.296809     0.000000     0.000000
   N   -13.100834     0.618626    -0.576334
   N   -12.296902    -0.000006     0.000035
   N   -30.068715     0.000000     0.000000
   N   -30.872741     0.618626    -0.576334
   N   -30.068809    -0.000006     0.000035
   N   -35.536756     0.000000     0.000000
   N   -36.340781     0.618626    -0.576334
   N   -35.536849    -0.000006     0.000035
   N   -46.058004     0.000000     0.000000
   N   -46.862029     0.618626    -0.576334
   N   -46.058097    -0.000006     0.000035
   N   -43.133097     0.000000     0.000000
   N   -43.937122     0.618626    -0.576334
   N   -43.133190    -0.000006     0.000035
   N   -44.858360     0.000000     0.000000
   N   -45.662386     0.618626    -0.576334
   N   -44.858454    -0.000006     0.000035
   N   -10.147897     0.000000     0.000000
   N   -10.951922     0.618626    -0.576334
   N   -10.147990    -0.000006     0.000035
   N   -27.011727     0.000000     0.000000
   N   -27.815752     0.618626    -0.576334
   N   -27.011820    -0.000006     0.000035
   N   -34.798367     0.000000     0.000000
   N   -35.602392     0.618626    -0.576334
   N   -34.798460    -0.000006     0.000035
   N   -26.700013     0.000000     0.000000
   N   -27.504038     0.618626    -0.576334
   N   -26.700106    -0.000006     0.000035
   N   -12.229690     0.000000     0.000000
   N   -13.033715     0.618626    -0.576334
   N   -12.229783    -0.000006     0.000035
   N   -21.384091     0.000000     0.000000
   N   -22.188117     0.618626    -0.576334
   N   -21.384184    -0.000006     0.000035
   N   -26.730625     0.000000     0.000000
   N   -27.534650     0.618626    -0.576334
   N   -26.730718    -0.000006     0.000035
   N    40.903761     0.000000     0.000000
   N    40.099736     0.618626    -0.576334
   N    40.903668    -0.000006     0.000035
   N    27.952775     0.000000     0.000000
   N    27.148750     0.618626    -0.576334
   N    27.952681    -0.000006     0.000035
   N     9.981384     0.000000     0.000000
   N     9.177359     0.618626    -0.576334
   N     9.981291    -0.000006     0.000035
   N    26.249761     0.000000     0.000000
   N    25.445736     0.618626    -0.576334
   N    26.249668    -0.000006     0.000035
   N    19.927926     0.000000     0.000000
   N    19.123901     0.618626    -0.576334
   N    19.927833    -0.000006     0.000035
   N    19.106429     0.000000     0.000000
   N    18.302404     0.618626    -0.576334
   N    19.106336    -0.000006     0.000035
   N    18.295099     0.000000     0.000000
   N    17.491073     0.618626    -0.576334
   N    18.295005    -0.000006     0.000035
   N    44.155593     0.000000     0.000000
   N    43.351568     0.618626    -0.576334
   N    44.155500    -0.000006     0.000035
   N    26.847349     0.000000     0.000000
   N    26.043323     0.618626    -0.576334
   N    26.847255    -0.000006     0.000035
   N    46.281768     0.000000     0.000000
   N    45.477743     0.618626    -0.576334
   N    46.281675    -0.000006     0.000035
   N    29.484727     0.000000     0.000000
   N    28.680702     0.618626    -0.576334
   N    29.484633    -0.000006     0.000035
   N    10.357723     0.000000     0.000000
   N     9.553698     0.618626    -0.576334
   N    10.357630    -0.000006     0.000035
   N    10.589616     0.000000     0.000000
   N     9.785591     0.618626    -0.576334
   N    10.589523    -0.000006     0.000035
   N     5.654603     0.000000     0.000000
   N     4.850578     0.618626    -0.576334
   N     5.654509    -0.000006     0.000035
   N     9.054252     0.000000     0.000000
   N     8.250227     0.618626    -0.576334
   N     9.054159    -0.000006     0.000035
   N    44.489722     0.000000     0.000000
   N    43.685696     0.618626    -0.576333
   N    44.489629    -0.000006     0.000035
   N     6.337928     0.000000     0.000000
   N     5.533903     0.618626    -0.576334
   N     6.337835    -0.000006     0.000035
   N    31.410555     0.000000     0.000000
   N    30.606529     0.618626    -0.576334
   N    31.410461    -0.000006     0.000035
   N    44.564379     0.000000     0.000000
   N    43.760353     0.618626    -0.576334
   N    44.564285    -0.000006     0.000035
   N    12.214561     0.000000     0.000000
   N    11.410535     0.618626    -0.576334
   N    12.214467    -0.000006     0.000035
   N    19.565055     0.000000     0.000000
   N    18.761030     0.618626    -0.576334
   N    19.564961    -0.000006     0.000035
   N   -23.419469     0.000000     0.000000
   N   -24.223494     0.618626    -0.576334
   N   -23.419562    -0.000006     0.000035
   S   -27.499998     0.000000     0.000000
   S   -27.199998    -0.400000     0.500000
   S   -27.399998     0.000000     0.000000
   S   -27.599998     0.000000     0.000000
   S   -25.499998     0.000000     0.000000
   S   -25.199998    -0.400000     0.500000
   S   -25.399998     0.000000     0.000000
   S   -25.599998     0.000000     0.000000
   S    17.500001     0.000000     0.000000
   S    17.800001    -0.400000     0.500000
   S    17.600001     0.000000     0.000000
   S    17.400001     0.000000     0.000000
   S    35.000001     0.000000     0.000000
   S    35.300001    -0.400000     0.500000
   S    35.100001     0.000000     0.000000
   S    34.900001     0.000000     0.000000
 nuc   -53.000000     0.000000     0.000000
 nuc   -53.000000     0.000000     0.000000
 nuc    53.000000     0.000000     0.000000
 nuc    53.000000     0.000000     0.000000
 nuc     0.000000     0.000000     0.000000
 nuc     0.000000     0.000000     0.000000
