50
mol output final
   P    -1.000000     0.000001    -1.000000
   P    -1.386900    -0.367099    -1.154000
   P    -0.700000    -0.399999    -0.500000
   P    -1.000000     0.500001    -1.000000
   P    -1.000000     0.000001    -0.999900
   P     0.999999     0.000000    -1.000001
   P     0.613099    -0.367100    -1.154001
   P     1.300000    -0.400000    -0.500002
   P     1.000000     0.500000    -1.000001
   P     0.999999     0.000000    -0.999901
   N    -4.504993     0.000000     0.000000
   N    -4.504993     0.000000     0.000100
   N    -4.504993     0.000000     0.000100
   N     8.233478     0.000000     0.000000
   N     8.233478     0.000000     0.000100
   N     8.233478     0.000000     0.000100
   N    -8.137543     0.000000     0.000000
   N    -8.137543     0.000000     0.000100
   N    -8.137543     0.000000     0.000100
   N    -2.337204     0.000000     0.000000
   N    -2.337220     0.000018     0.000097
   N    -2.337220     0.000018     0.000097
   N    10.122774     0.000000     0.000000
   N    10.122774     0.000000     0.000100
   N    10.122774     0.000000     0.000100
   N    -7.662406     0.000000     0.000000
   N    -7.662406     0.000000     0.000100
   N    -7.662406     0.000000     0.000100
   N    10.090479     0.000000     0.000000
   N    10.090479     0.000000     0.000100
   N    10.090479     0.000000     0.000100
   N     6.593946     0.000000     0.000000
   N     6.593946     0.000000     0.000100
   N     6.593946     0.000000     0.000100
   N    -6.381008     0.000000     0.000000
   N    -6.381008     0.000000     0.000100
   N    -6.381008     0.000000     0.000100
   N    -6.441025     0.000000     0.000000
   N    -6.441025     0.000000     0.000100
   N    -6.441025     0.000000     0.000100
   S    -1.000000     0.000000     0.000000
   S    -0.700000    -0.400000     0.500000
   S    -1.000000     0.000000     0.000100
   S     1.000000     0.000000     0.000000
   S     1.300000    -0.400000     0.500000
   S     1.000000     0.000000     0.000100
 nuc   -16.000000     0.000000     0.000000
 nuc   -16.000000     0.000000     0.000000
 nuc    16.000000     0.000000     0.000000
 nuc    16.000000     0.000000     0.000000
